
 OpenBabel09201913323D

  6  5  0  0  0  0  0  0  0  0999 V2000
    2.1595   -0.0042   -0.0512 C   0  0  0  0  0  0  0  0  0  0  0  0
    2.4889    1.2844   -0.1631 C   0  0  0  0  0  0  0  0  0  0  0  0
    2.0568   -0.4641    0.9461 H   0  0  0  0  0  0  0  0  0  0  0  0
    2.6677   -0.7315   -0.7016 H   0  0  0  0  0  0  0  0  0  0  0  0
    3.4077    1.5113   -0.7417 H   0  0  0  0  0  0  0  0  0  0  0  0
    2.4868    1.8952    0.7558 H   0  0  0  0  0  0  0  0  0  0  0  0
  1  3  1  0  0  0  0
  2  1  1  0  0  0  0
  2  6  1  0  0  0  0
  4  1  1  0  0  0  0
  5  2  1  0  0  0  0
M  RAD  2   1   2   2   2
M  END
